
     RDKit          3D

 38 37  0  0  0  0  0  0  0  0999 V2000
    1.0143    0.1441    1.8123 C   0  0  0  0  0  0  0  0  0  0  0  0
   -1.1593   -1.7001    1.2264 C   0  0  0  0  0  0  0  0  0  0  0  0
    1.5504   -0.5891   -1.9108 C   0  0  0  0  0  0  0  0  0  0  0  0
    3.1129   -0.4834   -0.0630 C   0  0  0  0  0  0  0  0  0  0  0  0
    1.8572    1.4973   -0.6132 C   0  0  0  0  0  0  0  0  0  0  0  0
   -1.4359    1.3767   -1.0426 C   0  0  0  0  0  0  0  0  0  0  0  0
   -2.9064   -0.4530   -0.5979 C   0  0  0  0  0  0  0  0  0  0  0  0
   -2.2001    0.9556    1.2055 C   0  0  0  0  0  0  0  0  0  0  0  0
    0.7508   -0.4905    0.4737 C   0  0  1  0  0  0  0  0  0  0  0  0
   -0.6383   -0.7315    0.1238 C   0  0  2  0  0  0  0  0  0  0  0  0
    1.7250   -0.0074   -0.5539 C   0  0  0  0  0  0  0  0  0  0  0  0
   -1.6667    0.2859   -0.0277 C   0  0  0  0  0  0  0  0  0  0  0  0
    0.7104   -0.5536    2.6425 H   0  0  0  0  0  0  0  0  0  0  0  0
    0.6724    1.1570    1.9454 H   0  0  0  0  0  0  0  0  0  0  0  0
    2.1421    0.1789    1.9119 H   0  0  0  0  0  0  0  0  0  0  0  0
   -1.1663   -1.2110    2.2109 H   0  0  0  0  0  0  0  0  0  0  0  0
   -2.0790   -2.1985    0.9227 H   0  0  0  0  0  0  0  0  0  0  0  0
   -0.3645   -2.4999    1.3002 H   0  0  0  0  0  0  0  0  0  0  0  0
    2.5748   -0.8320   -2.3235 H   0  0  0  0  0  0  0  0  0  0  0  0
    1.1263    0.0904   -2.6742 H   0  0  0  0  0  0  0  0  0  0  0  0
    1.0372   -1.5666   -1.8803 H   0  0  0  0  0  0  0  0  0  0  0  0
    3.7581   -0.7408   -0.9289 H   0  0  0  0  0  0  0  0  0  0  0  0
    2.9980   -1.4286    0.5268 H   0  0  0  0  0  0  0  0  0  0  0  0
    3.6230    0.2886    0.5140 H   0  0  0  0  0  0  0  0  0  0  0  0
    2.9164    1.7949   -0.7367 H   0  0  0  0  0  0  0  0  0  0  0  0
    1.4155    1.9912    0.2464 H   0  0  0  0  0  0  0  0  0  0  0  0
    1.3667    1.8501   -1.5691 H   0  0  0  0  0  0  0  0  0  0  0  0
   -0.9276    1.0127   -1.9504 H   0  0  0  0  0  0  0  0  0  0  0  0
   -0.9108    2.2539   -0.6195 H   0  0  0  0  0  0  0  0  0  0  0  0
   -2.4347    1.7598   -1.3896 H   0  0  0  0  0  0  0  0  0  0  0  0
   -3.4880   -0.9131    0.2276 H   0  0  0  0  0  0  0  0  0  0  0  0
   -3.5788    0.3050   -1.0511 H   0  0  0  0  0  0  0  0  0  0  0  0
   -2.5989   -1.1508   -1.3793 H   0  0  0  0  0  0  0  0  0  0  0  0
   -2.5264    0.2780    2.0037 H   0  0  0  0  0  0  0  0  0  0  0  0
   -1.5889    1.8142    1.5548 H   0  0  0  0  0  0  0  0  0  0  0  0
   -3.1622    1.4553    0.8610 H   0  0  0  0  0  0  0  0  0  0  0  0
    1.1422   -1.5595    0.6695 H   0  0  0  0  0  0  0  0  0  0  0  0
   -0.6609   -1.3804   -0.7864 H   0  0  0  0  0  0  0  0  0  0  0  0
  1  9  1  0
  2 10  1  0
  3 11  1  0
  4 11  1  0
  5 11  1  0
  6 12  1  0
  7 12  1  0
  8 12  1  0
  9 10  1  0
  9 11  1  0
 10 12  1  0
  1 13  1  0
  1 14  1  0
  1 15  1  0
  2 16  1  0
  2 17  1  0
  2 18  1  0
  3 19  1  0
  3 20  1  0
  3 21  1  0
  4 22  1  0
  4 23  1  0
  4 24  1  0
  5 25  1  0
  5 26  1  0
  5 27  1  0
  6 28  1  0
  6 29  1  0
  6 30  1  0
  7 31  1  0
  7 32  1  0
  7 33  1  0
  8 34  1  0
  8 35  1  0
  8 36  1  0
  9 37  1  1
 10 38  1  6
M  END
