
     RDKit          3D

 47 46  0  0  0  0  0  0  0  0999 V2000
   -3.3811    1.8724    1.0093 C   0  0  0  0  0  0  0  0  0  0  0  0
    3.3923    2.3647   -0.1291 C   0  0  0  0  0  0  0  0  0  0  0  0
    2.9392   -0.6410    2.1666 C   0  0  0  0  0  0  0  0  0  0  0  0
   -2.8726   -1.6883    1.2276 C   0  0  0  0  0  0  0  0  0  0  0  0
    1.3816    0.7584   -1.9360 C   0  0  0  0  0  0  0  0  0  0  0  0
    0.6396   -1.9596   -2.1000 C   0  0  0  0  0  0  0  0  0  0  0  0
   -4.0207    0.8079    0.1524 C   0  0  0  0  0  0  0  0  0  0  0  0
    3.4878    1.1832    0.7486 C   0  0  0  0  0  0  0  0  0  0  0  0
   -3.0309   -0.0233   -0.5925 C   0  0  0  0  0  0  0  0  0  0  0  0
    1.4537   -0.3595    0.3083 C   0  0  0  0  0  0  0  0  0  0  0  0
   -1.1305   -1.6453   -0.4527 C   0  0  0  0  0  0  0  0  0  0  0  0
    2.2987    0.4515    1.1739 C   0  0  1  0  0  0  0  0  0  0  0  0
   -2.0694   -0.7595    0.3104 C   0  0  2  0  0  0  0  0  0  0  0  0
    0.6305    0.1378   -0.7965 C   0  0  2  0  0  0  0  0  0  0  0  0
   -0.2480   -0.9498   -1.4092 C   0  0  1  0  0  0  0  0  0  0  0  0
   -2.3039    1.9438    0.7459 H   0  0  0  0  0  0  0  0  0  0  0  0
   -3.8073    2.8834    0.8327 H   0  0  0  0  0  0  0  0  0  0  0  0
   -3.5271    1.6645    2.0934 H   0  0  0  0  0  0  0  0  0  0  0  0
    4.1077    3.1827    0.2156 H   0  0  0  0  0  0  0  0  0  0  0  0
    3.7639    2.1264   -1.1395 H   0  0  0  0  0  0  0  0  0  0  0  0
    2.3757    2.8106   -0.1774 H   0  0  0  0  0  0  0  0  0  0  0  0
    2.1327   -1.1943    2.6320 H   0  0  0  0  0  0  0  0  0  0  0  0
    3.6150   -1.1915    1.5023 H   0  0  0  0  0  0  0  0  0  0  0  0
    3.5189   -0.0415    2.8911 H   0  0  0  0  0  0  0  0  0  0  0  0
   -3.3127   -1.1372    2.0747 H   0  0  0  0  0  0  0  0  0  0  0  0
   -3.5944   -2.2614    0.6357 H   0  0  0  0  0  0  0  0  0  0  0  0
   -2.1547   -2.4162    1.6673 H   0  0  0  0  0  0  0  0  0  0  0  0
    0.9409    0.3855   -2.9324 H   0  0  0  0  0  0  0  0  0  0  0  0
    2.4231    0.4542   -2.0075 H   0  0  0  0  0  0  0  0  0  0  0  0
    1.2962    1.8469   -1.9749 H   0  0  0  0  0  0  0  0  0  0  0  0
    1.7148   -1.7122   -1.9960 H   0  0  0  0  0  0  0  0  0  0  0  0
    0.5234   -2.9730   -1.6185 H   0  0  0  0  0  0  0  0  0  0  0  0
    0.3390   -2.0942   -3.1508 H   0  0  0  0  0  0  0  0  0  0  0  0
   -4.7354    0.1997    0.7590 H   0  0  0  0  0  0  0  0  0  0  0  0
   -4.6469    1.3356   -0.5974 H   0  0  0  0  0  0  0  0  0  0  0  0
    4.2865    0.4622    0.3640 H   0  0  0  0  0  0  0  0  0  0  0  0
    3.9928    1.5507    1.7104 H   0  0  0  0  0  0  0  0  0  0  0  0
   -3.5977   -0.7203   -1.2436 H   0  0  0  0  0  0  0  0  0  0  0  0
   -2.4725    0.6473   -1.2773 H   0  0  0  0  0  0  0  0  0  0  0  0
    0.7108   -0.9508    0.9819 H   0  0  0  0  0  0  0  0  0  0  0  0
    2.1001   -1.2507   -0.0398 H   0  0  0  0  0  0  0  0  0  0  0  0
   -0.5719   -2.3161    0.2036 H   0  0  0  0  0  0  0  0  0  0  0  0
   -1.7918   -2.3251   -1.0672 H   0  0  0  0  0  0  0  0  0  0  0  0
    1.7138    1.0516    1.9328 H   0  0  0  0  0  0  0  0  0  0  0  0
   -1.5519    0.0023    0.9292 H   0  0  0  0  0  0  0  0  0  0  0  0
   -0.1043    0.9218   -0.4361 H   0  0  0  0  0  0  0  0  0  0  0  0
   -0.8527   -0.4340   -2.1943 H   0  0  0  0  0  0  0  0  0  0  0  0
  1  7  1  0
  2  8  1  0
  3 12  1  0
  4 13  1  0
  5 14  1  0
  6 15  1  0
  7  9  1  0
  8 12  1  0
  9 13  1  0
 10 12  1  0
 10 14  1  0
 11 13  1  0
 11 15  1  0
 14 15  1  0
  1 16  1  0
  1 17  1  0
  1 18  1  0
  2 19  1  0
  2 20  1  0
  2 21  1  0
  3 22  1  0
  3 23  1  0
  3 24  1  0
  4 25  1  0
  4 26  1  0
  4 27  1  0
  5 28  1  0
  5 29  1  0
  5 30  1  0
  6 31  1  0
  6 32  1  0
  6 33  1  0
  7 34  1  0
  7 35  1  0
  8 36  1  0
  8 37  1  0
  9 38  1  0
  9 39  1  0
 10 40  1  0
 10 41  1  0
 11 42  1  0
 11 43  1  0
 12 44  1  1
 13 45  1  1
 14 46  1  1
 15 47  1  6
M  END
