
     RDKit          3D

 47 46  0  0  0  0  0  0  0  0999 V2000
   -5.2351   -0.3329    1.2312 C   0  0  0  0  0  0  0  0  0  0  0  0
    4.6105    0.6652    0.9854 C   0  0  0  0  0  0  0  0  0  0  0  0
    3.8404    0.7669   -1.9264 C   0  0  0  0  0  0  0  0  0  0  0  0
   -2.9230   -0.5814   -1.4333 C   0  0  0  0  0  0  0  0  0  0  0  0
    1.4786    0.7479    1.2826 C   0  0  0  0  0  0  0  0  0  0  0  0
   -0.1696   -1.5152    0.8567 C   0  0  0  0  0  0  0  0  0  0  0  0
   -5.0550    0.6907    0.1573 C   0  0  0  0  0  0  0  0  0  0  0  0
    4.4631   -0.5095    0.0915 C   0  0  0  0  0  0  0  0  0  0  0  0
   -3.6177    1.1969    0.1377 C   0  0  0  0  0  0  0  0  0  0  0  0
    2.1063   -0.6659   -0.7424 C   0  0  0  0  0  0  0  0  0  0  0  0
   -1.2525    0.6187    0.0241 C   0  0  0  0  0  0  0  0  0  0  0  0
    3.4966   -0.3935   -1.0320 C   0  0  1  0  0  0  0  0  0  0  0  0
   -2.6481    0.0646   -0.1220 C   0  0  2  0  0  0  0  0  0  0  0  0
    1.1981    0.2814   -0.0910 C   0  0  1  0  0  0  0  0  0  0  0  0
   -0.1836   -0.3829   -0.1092 C   0  0  1  0  0  0  0  0  0  0  0  0
   -6.1863   -0.1348    1.7972 H   0  0  0  0  0  0  0  0  0  0  0  0
   -4.3710   -0.3962    1.9368 H   0  0  0  0  0  0  0  0  0  0  0  0
   -5.3445   -1.3228    0.7713 H   0  0  0  0  0  0  0  0  0  0  0  0
    4.1773    1.5682    0.5049 H   0  0  0  0  0  0  0  0  0  0  0  0
    5.7233    0.8756    1.1033 H   0  0  0  0  0  0  0  0  0  0  0  0
    4.2837    0.4991    2.0282 H   0  0  0  0  0  0  0  0  0  0  0  0
    3.6627    1.7518   -1.4628 H   0  0  0  0  0  0  0  0  0  0  0  0
    4.9294    0.7097   -2.1404 H   0  0  0  0  0  0  0  0  0  0  0  0
    3.3277    0.7346   -2.9067 H   0  0  0  0  0  0  0  0  0  0  0  0
   -2.0749   -0.6608   -2.1175 H   0  0  0  0  0  0  0  0  0  0  0  0
   -3.6924    0.0372   -1.9845 H   0  0  0  0  0  0  0  0  0  0  0  0
   -3.4446   -1.5736   -1.2895 H   0  0  0  0  0  0  0  0  0  0  0  0
    0.5312    0.9441    1.8850 H   0  0  0  0  0  0  0  0  0  0  0  0
    1.9977   -0.0046    1.9183 H   0  0  0  0  0  0  0  0  0  0  0  0
    1.9604    1.7437    1.2752 H   0  0  0  0  0  0  0  0  0  0  0  0
   -0.9748   -1.3939    1.6391 H   0  0  0  0  0  0  0  0  0  0  0  0
    0.7787   -1.5748    1.4638 H   0  0  0  0  0  0  0  0  0  0  0  0
   -0.2495   -2.5245    0.3784 H   0  0  0  0  0  0  0  0  0  0  0  0
   -5.7158    1.5534    0.3756 H   0  0  0  0  0  0  0  0  0  0  0  0
   -5.3516    0.2969   -0.8319 H   0  0  0  0  0  0  0  0  0  0  0  0
    5.4859   -0.8222   -0.2665 H   0  0  0  0  0  0  0  0  0  0  0  0
    4.1313   -1.3803    0.7459 H   0  0  0  0  0  0  0  0  0  0  0  0
   -3.3765    1.6442    1.1115 H   0  0  0  0  0  0  0  0  0  0  0  0
   -3.4630    1.9429   -0.6565 H   0  0  0  0  0  0  0  0  0  0  0  0
    2.0269   -1.6448   -0.1478 H   0  0  0  0  0  0  0  0  0  0  0  0
    1.5565   -0.9885   -1.7002 H   0  0  0  0  0  0  0  0  0  0  0  0
   -1.1778    1.1690    0.9713 H   0  0  0  0  0  0  0  0  0  0  0  0
   -1.0880    1.3942   -0.7780 H   0  0  0  0  0  0  0  0  0  0  0  0
    3.8334   -1.3018   -1.7205 H   0  0  0  0  0  0  0  0  0  0  0  0
   -2.7758   -0.6848    0.6976 H   0  0  0  0  0  0  0  0  0  0  0  0
    1.0735    1.2029   -0.7724 H   0  0  0  0  0  0  0  0  0  0  0  0
   -0.3026   -0.8597   -1.1384 H   0  0  0  0  0  0  0  0  0  0  0  0
  1  7  1  0
  2  8  1  0
  3 12  1  0
  4 13  1  0
  5 14  1  0
  6 15  1  0
  7  9  1  0
  8 12  1  0
  9 13  1  0
 10 12  1  0
 10 14  1  0
 11 13  1  0
 11 15  1  0
 14 15  1  0
  1 16  1  0
  1 17  1  0
  1 18  1  0
  2 19  1  0
  2 20  1  0
  2 21  1  0
  3 22  1  0
  3 23  1  0
  3 24  1  0
  4 25  1  0
  4 26  1  0
  4 27  1  0
  5 28  1  0
  5 29  1  0
  5 30  1  0
  6 31  1  0
  6 32  1  0
  6 33  1  0
  7 34  1  0
  7 35  1  0
  8 36  1  0
  8 37  1  0
  9 38  1  0
  9 39  1  0
 10 40  1  0
 10 41  1  0
 11 42  1  0
 11 43  1  0
 12 44  1  6
 13 45  1  1
 14 46  1  6
 15 47  1  6
M  END
