
     RDKit          3D

 47 46  0  0  0  0  0  0  0  0999 V2000
    2.6759    2.5264    0.2257 C   0  0  0  0  0  0  0  0  0  0  0  0
   -4.3140    0.8954    0.0158 C   0  0  0  0  0  0  0  0  0  0  0  0
   -2.0846    2.3070   -1.0513 C   0  0  0  0  0  0  0  0  0  0  0  0
    3.3161   -1.7654    0.4211 C   0  0  0  0  0  0  0  0  0  0  0  0
   -2.2341   -1.9521    0.5709 C   0  0  0  0  0  0  0  0  0  0  0  0
    0.5059   -2.8417    0.6706 C   0  0  0  0  0  0  0  0  0  0  0  0
    2.8626    1.6992   -1.0459 C   0  0  0  0  0  0  0  0  0  0  0  0
   -3.0216    1.0934    0.7764 C   0  0  0  0  0  0  0  0  0  0  0  0
    3.4321    0.3608   -0.7273 C   0  0  0  0  0  0  0  0  0  0  0  0
   -1.5042   -0.0425   -0.9217 C   0  0  0  0  0  0  0  0  0  0  0  0
    1.2202   -0.6204   -0.3396 C   0  0  0  0  0  0  0  0  0  0  0  0
   -1.8052    1.1250   -0.0893 C   0  0  1  0  0  0  0  0  0  0  0  0
    2.5744   -0.4734    0.2253 C   0  0  1  0  0  0  0  0  0  0  0  0
   -1.1561   -1.3362   -0.3149 C   0  0  1  0  0  0  0  0  0  0  0  0
    0.1953   -1.3912    0.3995 C   0  0  1  0  0  0  0  0  0  0  0  0
    3.2678    2.0411    1.0243 H   0  0  0  0  0  0  0  0  0  0  0  0
    1.5969    2.5071    0.5325 H   0  0  0  0  0  0  0  0  0  0  0  0
    2.9859    3.5841    0.0731 H   0  0  0  0  0  0  0  0  0  0  0  0
   -4.8664    0.0725    0.5232 H   0  0  0  0  0  0  0  0  0  0  0  0
   -4.1688    0.7085   -1.0560 H   0  0  0  0  0  0  0  0  0  0  0  0
   -4.9807    1.7878    0.0824 H   0  0  0  0  0  0  0  0  0  0  0  0
   -2.7124    1.8827   -1.8584 H   0  0  0  0  0  0  0  0  0  0  0  0
   -2.6491    3.0882   -0.5252 H   0  0  0  0  0  0  0  0  0  0  0  0
   -1.1417    2.6680   -1.5002 H   0  0  0  0  0  0  0  0  0  0  0  0
    4.4041   -1.6474    0.0881 H   0  0  0  0  0  0  0  0  0  0  0  0
    2.9658   -2.6108   -0.1837 H   0  0  0  0  0  0  0  0  0  0  0  0
    3.3900   -2.0806    1.4906 H   0  0  0  0  0  0  0  0  0  0  0  0
   -2.2258   -3.0853    0.4532 H   0  0  0  0  0  0  0  0  0  0  0  0
   -3.2285   -1.6802    0.1775 H   0  0  0  0  0  0  0  0  0  0  0  0
   -2.0723   -1.7900    1.6365 H   0  0  0  0  0  0  0  0  0  0  0  0
    1.2953   -3.0181    1.4157 H   0  0  0  0  0  0  0  0  0  0  0  0
    0.7645   -3.3684   -0.2543 H   0  0  0  0  0  0  0  0  0  0  0  0
   -0.4008   -3.3408    1.1605 H   0  0  0  0  0  0  0  0  0  0  0  0
    1.8897    1.6723   -1.5584 H   0  0  0  0  0  0  0  0  0  0  0  0
    3.6119    2.2736   -1.6508 H   0  0  0  0  0  0  0  0  0  0  0  0
   -3.0899    2.1288    1.2309 H   0  0  0  0  0  0  0  0  0  0  0  0
   -2.9484    0.4298    1.6581 H   0  0  0  0  0  0  0  0  0  0  0  0
    4.4127    0.5086   -0.2044 H   0  0  0  0  0  0  0  0  0  0  0  0
    3.6675   -0.2003   -1.6478 H   0  0  0  0  0  0  0  0  0  0  0  0
   -2.4400   -0.2456   -1.5441 H   0  0  0  0  0  0  0  0  0  0  0  0
   -0.7662    0.2256   -1.7027 H   0  0  0  0  0  0  0  0  0  0  0  0
    0.7647    0.3752   -0.5926 H   0  0  0  0  0  0  0  0  0  0  0  0
    1.3211   -1.1111   -1.3564 H   0  0  0  0  0  0  0  0  0  0  0  0
   -0.9683    1.5126    0.5310 H   0  0  0  0  0  0  0  0  0  0  0  0
    2.5892    0.1219    1.1804 H   0  0  0  0  0  0  0  0  0  0  0  0
   -1.0433   -2.0705   -1.1702 H   0  0  0  0  0  0  0  0  0  0  0  0
    0.1127   -0.9234    1.4127 H   0  0  0  0  0  0  0  0  0  0  0  0
  1  7  1  0
  2  8  1  0
  3 12  1  0
  4 13  1  0
  5 14  1  0
  6 15  1  0
  7  9  1  0
  8 12  1  0
  9 13  1  0
 10 12  1  0
 10 14  1  0
 11 13  1  0
 11 15  1  0
 14 15  1  0
  1 16  1  0
  1 17  1  0
  1 18  1  0
  2 19  1  0
  2 20  1  0
  2 21  1  0
  3 22  1  0
  3 23  1  0
  3 24  1  0
  4 25  1  0
  4 26  1  0
  4 27  1  0
  5 28  1  0
  5 29  1  0
  5 30  1  0
  6 31  1  0
  6 32  1  0
  6 33  1  0
  7 34  1  0
  7 35  1  0
  8 36  1  0
  8 37  1  0
  9 38  1  0
  9 39  1  0
 10 40  1  0
 10 41  1  0
 11 42  1  0
 11 43  1  0
 12 44  1  1
 13 45  1  1
 14 46  1  6
 15 47  1  1
M  END
