
     RDKit          3D

 47 46  0  0  0  0  0  0  0  0999 V2000
    4.3185    1.7100   -0.4095 C   0  0  0  0  0  0  0  0  0  0  0  0
   -2.9069    2.0893   -1.7654 C   0  0  0  0  0  0  0  0  0  0  0  0
   -4.2402   -0.3301    0.8210 C   0  0  0  0  0  0  0  0  0  0  0  0
    3.1520   -0.8922   -1.5596 C   0  0  0  0  0  0  0  0  0  0  0  0
   -1.3917   -2.2041   -0.6058 C   0  0  0  0  0  0  0  0  0  0  0  0
    0.3047    0.0342    1.9618 C   0  0  0  0  0  0  0  0  0  0  0  0
    3.5454    1.1987    0.7727 C   0  0  0  0  0  0  0  0  0  0  0  0
   -3.7671    1.5222   -0.6810 C   0  0  0  0  0  0  0  0  0  0  0  0
    3.2851   -0.2333    0.8183 C   0  0  0  0  0  0  0  0  0  0  0  0
   -1.8779    0.1479    0.1012 C   0  0  0  0  0  0  0  0  0  0  0  0
    1.0574   -0.8795   -0.2980 C   0  0  0  0  0  0  0  0  0  0  0  0
   -3.3269    0.1379   -0.2515 C   0  0  1  0  0  0  0  0  0  0  0  0
    2.5157   -0.9837   -0.1485 C   0  0  1  0  0  0  0  0  0  0  0  0
   -1.2992   -1.1610    0.4746 C   0  0  2  0  0  0  0  0  0  0  0  0
    0.1686   -0.9719    0.8874 C   0  0  2  0  0  0  0  0  0  0  0  0
    4.9759    0.9118   -0.7870 H   0  0  0  0  0  0  0  0  0  0  0  0
    5.0204    2.5502   -0.0626 H   0  0  0  0  0  0  0  0  0  0  0  0
    3.7000    2.1842   -1.1971 H   0  0  0  0  0  0  0  0  0  0  0  0
   -2.8658    1.3866   -2.6170 H   0  0  0  0  0  0  0  0  0  0  0  0
   -3.4043    3.0139   -2.1357 H   0  0  0  0  0  0  0  0  0  0  0  0
   -1.9014    2.3916   -1.4283 H   0  0  0  0  0  0  0  0  0  0  0  0
   -3.9817    0.0457    1.8244 H   0  0  0  0  0  0  0  0  0  0  0  0
   -5.2773    0.0531    0.6132 H   0  0  0  0  0  0  0  0  0  0  0  0
   -4.3492   -1.4427    0.7926 H   0  0  0  0  0  0  0  0  0  0  0  0
    3.0811    0.1022   -1.9661 H   0  0  0  0  0  0  0  0  0  0  0  0
    4.2054   -1.1847   -1.4233 H   0  0  0  0  0  0  0  0  0  0  0  0
    2.6162   -1.6073   -2.2361 H   0  0  0  0  0  0  0  0  0  0  0  0
   -1.1487   -1.8275   -1.6119 H   0  0  0  0  0  0  0  0  0  0  0  0
   -0.7086   -3.0523   -0.3940 H   0  0  0  0  0  0  0  0  0  0  0  0
   -2.4164   -2.6899   -0.5973 H   0  0  0  0  0  0  0  0  0  0  0  0
    0.6398    1.0260    1.6761 H   0  0  0  0  0  0  0  0  0  0  0  0
    0.9392   -0.3432    2.7718 H   0  0  0  0  0  0  0  0  0  0  0  0
   -0.7235    0.0988    2.4746 H   0  0  0  0  0  0  0  0  0  0  0  0
    4.2381    1.4197    1.6618 H   0  0  0  0  0  0  0  0  0  0  0  0
    2.6832    1.8639    1.0167 H   0  0  0  0  0  0  0  0  0  0  0  0
   -3.7329    2.2312    0.1832 H   0  0  0  0  0  0  0  0  0  0  0  0
   -4.8127    1.4723   -1.0707 H   0  0  0  0  0  0  0  0  0  0  0  0
    4.3556   -0.7097    0.7869 H   0  0  0  0  0  0  0  0  0  0  0  0
    3.0325   -0.5195    1.8890 H   0  0  0  0  0  0  0  0  0  0  0  0
   -1.7341    0.8650    0.9284 H   0  0  0  0  0  0  0  0  0  0  0  0
   -1.3148    0.5501   -0.7753 H   0  0  0  0  0  0  0  0  0  0  0  0
    0.7604   -1.7757   -0.9453 H   0  0  0  0  0  0  0  0  0  0  0  0
    0.7425   -0.0406   -0.9933 H   0  0  0  0  0  0  0  0  0  0  0  0
   -3.4698   -0.5302   -1.1410 H   0  0  0  0  0  0  0  0  0  0  0  0
    2.7124   -2.0948    0.0910 H   0  0  0  0  0  0  0  0  0  0  0  0
   -1.8088   -1.5538    1.3715 H   0  0  0  0  0  0  0  0  0  0  0  0
    0.4099   -1.9788    1.3644 H   0  0  0  0  0  0  0  0  0  0  0  0
  1  7  1  0
  2  8  1  0
  3 12  1  0
  4 13  1  0
  5 14  1  0
  6 15  1  0
  7  9  1  0
  8 12  1  0
  9 13  1  0
 10 12  1  0
 10 14  1  0
 11 13  1  0
 11 15  1  0
 14 15  1  0
  1 16  1  0
  1 17  1  0
  1 18  1  0
  2 19  1  0
  2 20  1  0
  2 21  1  0
  3 22  1  0
  3 23  1  0
  3 24  1  0
  4 25  1  0
  4 26  1  0
  4 27  1  0
  5 28  1  0
  5 29  1  0
  5 30  1  0
  6 31  1  0
  6 32  1  0
  6 33  1  0
  7 34  1  0
  7 35  1  0
  8 36  1  0
  8 37  1  0
  9 38  1  0
  9 39  1  0
 10 40  1  0
 10 41  1  0
 11 42  1  0
 11 43  1  0
 12 44  1  6
 13 45  1  1
 14 46  1  1
 15 47  1  1
M  END
