
     RDKit          3D

 56 55  0  0  0  0  0  0  0  0999 V2000
    7.9093    0.7040   -1.2195 C   0  0  0  0  0  0  0  0  0  0  0  0
   -7.1313    0.9238    0.5118 C   0  0  0  0  0  0  0  0  0  0  0  0
    6.6688   -0.1174   -1.4774 C   0  0  0  0  0  0  0  0  0  0  0  0
   -7.1164    0.4595   -0.9275 C   0  0  0  0  0  0  0  0  0  0  0  0
    5.4176    0.6524   -1.0927 C   0  0  0  0  0  0  0  0  0  0  0  0
   -5.8885   -0.3785   -1.2416 C   0  0  0  0  0  0  0  0  0  0  0  0
    5.4353    1.0192    0.3751 C   0  0  0  0  0  0  0  0  0  0  0  0
   -4.6318    0.3952   -1.0127 C   0  0  0  0  0  0  0  0  0  0  0  0
    4.1986    1.7765    0.7410 C   0  0  0  0  0  0  0  0  0  0  0  0
   -3.4101   -0.4162   -1.3209 C   0  0  0  0  0  0  0  0  0  0  0  0
    2.9352    0.9989    0.4969 C   0  0  0  0  0  0  0  0  0  0  0  0
   -3.3015   -1.6514   -0.4803 C   0  0  0  0  0  0  0  0  0  0  0  0
    2.9013   -0.2875    1.3014 C   0  0  0  0  0  0  0  0  0  0  0  0
   -3.2568   -1.2538    0.9708 C   0  0  0  0  0  0  0  0  0  0  0  0
    1.6080   -1.0130    1.0054 C   0  0  0  0  0  0  0  0  0  0  0  0
   -2.1033   -0.3580    1.3237 C   0  0  0  0  0  0  0  0  0  0  0  0
    0.3912   -0.1857    1.3707 C   0  0  0  0  0  0  0  0  0  0  0  0
   -0.8221   -1.0551    1.0131 C   0  0  0  0  0  0  0  0  0  0  0  0
    8.1520    0.7710   -0.1449 H   0  0  0  0  0  0  0  0  0  0  0  0
    8.7616    0.3836   -1.8482 H   0  0  0  0  0  0  0  0  0  0  0  0
    7.6728    1.7576   -1.5465 H   0  0  0  0  0  0  0  0  0  0  0  0
   -6.5549    0.2476    1.1730 H   0  0  0  0  0  0  0  0  0  0  0  0
   -6.7865    1.9917    0.6097 H   0  0  0  0  0  0  0  0  0  0  0  0
   -8.1895    0.9304    0.8461 H   0  0  0  0  0  0  0  0  0  0  0  0
    6.7430   -1.0479   -0.8472 H   0  0  0  0  0  0  0  0  0  0  0  0
    6.6147   -0.4530   -2.5112 H   0  0  0  0  0  0  0  0  0  0  0  0
   -7.2072    1.3131   -1.6074 H   0  0  0  0  0  0  0  0  0  0  0  0
   -7.9957   -0.2193   -1.0837 H   0  0  0  0  0  0  0  0  0  0  0  0
    5.4179    1.5804   -1.6890 H   0  0  0  0  0  0  0  0  0  0  0  0
    4.5316    0.0631   -1.3563 H   0  0  0  0  0  0  0  0  0  0  0  0
   -5.8644   -1.2999   -0.6405 H   0  0  0  0  0  0  0  0  0  0  0  0
   -6.0065   -0.7022   -2.3025 H   0  0  0  0  0  0  0  0  0  0  0  0
    5.6074    0.1456    1.0246 H   0  0  0  0  0  0  0  0  0  0  0  0
    6.3028    1.6954    0.5206 H   0  0  0  0  0  0  0  0  0  0  0  0
   -4.5836    1.3057   -1.6760 H   0  0  0  0  0  0  0  0  0  0  0  0
   -4.6034    0.7015    0.0467 H   0  0  0  0  0  0  0  0  0  0  0  0
    4.2497    2.0423    1.8042 H   0  0  0  0  0  0  0  0  0  0  0  0
    4.1551    2.6793    0.0958 H   0  0  0  0  0  0  0  0  0  0  0  0
   -3.3709   -0.7197   -2.3966 H   0  0  0  0  0  0  0  0  0  0  0  0
   -2.5122    0.2076   -1.1429 H   0  0  0  0  0  0  0  0  0  0  0  0
    2.0941    1.6474    0.8734 H   0  0  0  0  0  0  0  0  0  0  0  0
    2.7254    0.8189   -0.5707 H   0  0  0  0  0  0  0  0  0  0  0  0
   -4.1405   -2.3678   -0.6786 H   0  0  0  0  0  0  0  0  0  0  0  0
   -2.3546   -2.1772   -0.7415 H   0  0  0  0  0  0  0  0  0  0  0  0
    3.0614   -0.1115    2.3618 H   0  0  0  0  0  0  0  0  0  0  0  0
    3.7209   -0.9282    0.9169 H   0  0  0  0  0  0  0  0  0  0  0  0
   -3.1261   -2.2251    1.5368 H   0  0  0  0  0  0  0  0  0  0  0  0
   -4.2308   -0.8457    1.3219 H   0  0  0  0  0  0  0  0  0  0  0  0
    1.5240   -1.9582    1.5738 H   0  0  0  0  0  0  0  0  0  0  0  0
    1.5132   -1.2695   -0.0568 H   0  0  0  0  0  0  0  0  0  0  0  0
   -2.1524   -0.1023    2.4112 H   0  0  0  0  0  0  0  0  0  0  0  0
   -2.1912    0.6136    0.7867 H   0  0  0  0  0  0  0  0  0  0  0  0
    0.2935    0.7100    0.6910 H   0  0  0  0  0  0  0  0  0  0  0  0
    0.3772    0.1259    2.4180 H   0  0  0  0  0  0  0  0  0  0  0  0
   -0.7271   -1.2461   -0.0744 H   0  0  0  0  0  0  0  0  0  0  0  0
   -0.7245   -1.9866    1.5656 H   0  0  0  0  0  0  0  0  0  0  0  0
  1  3  1  0
  2  4  1  0
  3  5  1  0
  4  6  1  0
  5  7  1  0
  6  8  1  0
  7  9  1  0
  8 10  1  0
  9 11  1  0
 10 12  1  0
 11 13  1  0
 12 14  1  0
 13 15  1  0
 14 16  1  0
 15 17  1  0
 16 18  1  0
 17 18  1  0
  1 19  1  0
  1 20  1  0
  1 21  1  0
  2 22  1  0
  2 23  1  0
  2 24  1  0
  3 25  1  0
  3 26  1  0
  4 27  1  0
  4 28  1  0
  5 29  1  0
  5 30  1  0
  6 31  1  0
  6 32  1  0
  7 33  1  0
  7 34  1  0
  8 35  1  0
  8 36  1  0
  9 37  1  0
  9 38  1  0
 10 39  1  0
 10 40  1  0
 11 41  1  0
 11 42  1  0
 12 43  1  0
 12 44  1  0
 13 45  1  0
 13 46  1  0
 14 47  1  0
 14 48  1  0
 15 49  1  0
 15 50  1  0
 16 51  1  0
 16 52  1  0
 17 53  1  0
 17 54  1  0
 18 55  1  0
 18 56  1  0
M  END
