
     RDKit          3D

 65 64  0  0  0  0  0  0  0  0999 V2000
   -6.5908   -1.7039    0.9837 C   0  0  0  0  0  0  0  0  0  0  0  0
    5.5428   -1.3553    2.7120 C   0  0  0  0  0  0  0  0  0  0  0  0
   -4.1772    1.0646    1.9799 C   0  0  0  0  0  0  0  0  0  0  0  0
    6.1914    0.7548   -0.3900 C   0  0  0  0  0  0  0  0  0  0  0  0
   -5.0763    0.1646   -1.5955 C   0  0  0  0  0  0  0  0  0  0  0  0
    3.5042   -1.2346   -1.5246 C   0  0  0  0  0  0  0  0  0  0  0  0
   -0.8930    0.2385    0.4942 C   0  0  0  0  0  0  0  0  0  0  0  0
    1.8637    1.6650   -2.7596 C   0  0  0  0  0  0  0  0  0  0  0  0
   -6.0867   -0.3902    1.4761 C   0  0  0  0  0  0  0  0  0  0  0  0
    6.1369   -0.3312    1.7847 C   0  0  0  0  0  0  0  0  0  0  0  0
   -3.8901   -0.8879    0.3265 C   0  0  0  0  0  0  0  0  0  0  0  0
    4.0056   -0.0005    0.5223 C   0  0  0  0  0  0  0  0  0  0  0  0
   -2.6383    0.6329   -1.3501 C   0  0  0  0  0  0  0  0  0  0  0  0
    1.8965    0.4890   -0.6054 C   0  0  0  0  0  0  0  0  0  0  0  0
   -0.2380    1.1060   -1.7466 C   0  0  0  0  0  0  0  0  0  0  0  0
   -4.5750   -0.2478    1.4559 C   0  0  1  0  0  0  0  0  0  0  0  0
    5.4786   -0.3323    0.4244 C   0  0  1  0  0  0  0  0  0  0  0  0
   -3.7349   -0.2718   -0.9844 C   0  0  2  0  0  0  0  0  0  0  0  0
    3.3619    0.0757   -0.8424 C   0  0  2  0  0  0  0  0  0  0  0  0
   -1.2293    0.3176   -0.9417 C   0  0  1  0  0  0  0  0  0  0  0  0
    1.1522    0.6103   -1.8654 C   0  0  1  0  0  0  0  0  0  0  0  0
   -6.7816   -1.7077   -0.0935 H   0  0  0  0  0  0  0  0  0  0  0  0
   -5.9560   -2.5300    1.3603 H   0  0  0  0  0  0  0  0  0  0  0  0
   -7.6044   -1.9218    1.4499 H   0  0  0  0  0  0  0  0  0  0  0  0
    5.1770   -2.2230    2.1425 H   0  0  0  0  0  0  0  0  0  0  0  0
    4.7505   -0.9264    3.3595 H   0  0  0  0  0  0  0  0  0  0  0  0
    6.3452   -1.7085    3.3879 H   0  0  0  0  0  0  0  0  0  0  0  0
   -3.4005    1.0212    2.8001 H   0  0  0  0  0  0  0  0  0  0  0  0
   -5.0625    1.5325    2.4968 H   0  0  0  0  0  0  0  0  0  0  0  0
   -3.8822    1.8133    1.2166 H   0  0  0  0  0  0  0  0  0  0  0  0
    6.2476    0.4372   -1.4407 H   0  0  0  0  0  0  0  0  0  0  0  0
    5.6394    1.7065   -0.2629 H   0  0  0  0  0  0  0  0  0  0  0  0
    7.2202    0.9215   -0.0197 H   0  0  0  0  0  0  0  0  0  0  0  0
   -5.7144   -0.6540   -1.8887 H   0  0  0  0  0  0  0  0  0  0  0  0
   -4.8698    0.7181   -2.5681 H   0  0  0  0  0  0  0  0  0  0  0  0
   -5.4981    0.9501   -0.9532 H   0  0  0  0  0  0  0  0  0  0  0  0
    2.6485   -1.6053   -2.0830 H   0  0  0  0  0  0  0  0  0  0  0  0
    4.3412   -1.1377   -2.2725 H   0  0  0  0  0  0  0  0  0  0  0  0
    3.8848   -2.0116   -0.8066 H   0  0  0  0  0  0  0  0  0  0  0  0
   -0.6219   -0.7663    0.8685 H   0  0  0  0  0  0  0  0  0  0  0  0
   -0.1465    1.0225    0.8208 H   0  0  0  0  0  0  0  0  0  0  0  0
   -1.8091    0.6010    1.0600 H   0  0  0  0  0  0  0  0  0  0  0  0
    1.9708    2.5792   -2.1646 H   0  0  0  0  0  0  0  0  0  0  0  0
    1.1818    1.8493   -3.6150 H   0  0  0  0  0  0  0  0  0  0  0  0
    2.8037    1.2745   -3.1478 H   0  0  0  0  0  0  0  0  0  0  0  0
   -6.6205    0.4789    1.0431 H   0  0  0  0  0  0  0  0  0  0  0  0
   -6.4008   -0.3446    2.5707 H   0  0  0  0  0  0  0  0  0  0  0  0
    6.0816    0.6650    2.2556 H   0  0  0  0  0  0  0  0  0  0  0  0
    7.1976   -0.5733    1.6353 H   0  0  0  0  0  0  0  0  0  0  0  0
   -2.9091   -1.3829    0.6083 H   0  0  0  0  0  0  0  0  0  0  0  0
   -4.5194   -1.8457    0.1350 H   0  0  0  0  0  0  0  0  0  0  0  0
    3.9263    0.9612    1.0778 H   0  0  0  0  0  0  0  0  0  0  0  0
    3.5436   -0.7742    1.1642 H   0  0  0  0  0  0  0  0  0  0  0  0
   -2.7938    1.6907   -0.9812 H   0  0  0  0  0  0  0  0  0  0  0  0
   -2.6196    0.6697   -2.4912 H   0  0  0  0  0  0  0  0  0  0  0  0
    1.4840   -0.2941    0.0624 H   0  0  0  0  0  0  0  0  0  0  0  0
    1.9560    1.4391   -0.0759 H   0  0  0  0  0  0  0  0  0  0  0  0
   -0.2699    2.1546   -1.2983 H   0  0  0  0  0  0  0  0  0  0  0  0
   -0.7058    1.2878   -2.7636 H   0  0  0  0  0  0  0  0  0  0  0  0
   -4.2968   -0.9676    2.3457 H   0  0  0  0  0  0  0  0  0  0  0  0
    5.6299   -1.3201   -0.0236 H   0  0  0  0  0  0  0  0  0  0  0  0
   -3.5220   -1.2048   -1.6713 H   0  0  0  0  0  0  0  0  0  0  0  0
    3.8865    0.8841   -1.3943 H   0  0  0  0  0  0  0  0  0  0  0  0
   -1.0593   -0.7863   -1.3444 H   0  0  0  0  0  0  0  0  0  0  0  0
    1.1432   -0.3355   -2.4732 H   0  0  0  0  0  0  0  0  0  0  0  0
  1  9  1  0
  2 10  1  0
  3 16  1  0
  4 17  1  0
  5 18  1  0
  6 19  1  0
  7 20  1  0
  8 21  1  0
  9 16  1  0
 10 17  1  0
 11 16  1  0
 11 18  1  0
 12 17  1  0
 12 19  1  0
 13 18  1  0
 13 20  1  0
 14 19  1  0
 14 21  1  0
 15 20  1  0
 15 21  1  0
  1 22  1  0
  1 23  1  0
  1 24  1  0
  2 25  1  0
  2 26  1  0
  2 27  1  0
  3 28  1  0
  3 29  1  0
  3 30  1  0
  4 31  1  0
  4 32  1  0
  4 33  1  0
  5 34  1  0
  5 35  1  0
  5 36  1  0
  6 37  1  0
  6 38  1  0
  6 39  1  0
  7 40  1  0
  7 41  1  0
  7 42  1  0
  8 43  1  0
  8 44  1  0
  8 45  1  0
  9 46  1  0
  9 47  1  0
 10 48  1  0
 10 49  1  0
 11 50  1  0
 11 51  1  0
 12 52  1  0
 12 53  1  0
 13 54  1  0
 13 55  1  0
 14 56  1  0
 14 57  1  0
 15 58  1  0
 15 59  1  0
 16 60  1  1
 17 61  1  6
 18 62  1  6
 19 63  1  6
 20 64  1  6
 21 65  1  6
M  END
