
     RDKit          3D

 80 79  0  0  0  0  0  0  0  0999 V2000
    4.3519   -3.3805    2.0655 C   0  0  0  0  0  0  0  0  0  0  0  0
   -4.0657   -3.5940    2.2890 C   0  0  0  0  0  0  0  0  0  0  0  0
    1.7976    5.2843   -0.1175 C   0  0  0  0  0  0  0  0  0  0  0  0
   -4.2480   -2.3560   -2.4795 C   0  0  0  0  0  0  0  0  0  0  0  0
    2.0102   -0.1335   -2.9416 C   0  0  0  0  0  0  0  0  0  0  0  0
   -3.8889    1.8865   -1.2923 C   0  0  0  0  0  0  0  0  0  0  0  0
    2.3763    2.8630    1.2123 C   0  0  0  0  0  0  0  0  0  0  0  0
   -0.2073    1.6263    2.2712 C   0  0  0  0  0  0  0  0  0  0  0  0
    4.1598   -1.8774    1.9967 C   0  0  0  0  0  0  0  0  0  0  0  0
   -3.9056   -2.1887    1.6872 C   0  0  0  0  0  0  0  0  0  0  0  0
    1.0355    3.9966   -0.4749 C   0  0  0  0  0  0  0  0  0  0  0  0
   -3.0857   -1.5374   -1.9314 C   0  0  0  0  0  0  0  0  0  0  0  0
    2.5755    0.4564   -1.6752 C   0  0  0  0  0  0  0  0  0  0  0  0
   -2.5614    1.9671   -0.6105 C   0  0  0  0  0  0  0  0  0  0  0  0
    4.5987   -1.3339    0.6535 C   0  0  0  0  0  0  0  0  0  0  0  0
    3.8442   -1.9173   -0.4995 C   0  0  0  0  0  0  0  0  0  0  0  0
   -3.5844   -2.3975    0.2477 C   0  0  0  0  0  0  0  0  0  0  0  0
    2.3827   -1.6698   -0.4353 C   0  0  0  0  0  0  0  0  0  0  0  0
   -2.1778   -0.4271    0.0555 C   0  0  0  0  0  0  0  0  0  0  0  0
    0.5690   -0.1343   -0.2515 C   0  0  0  0  0  0  0  0  0  0  0  0
    0.9902    3.1726    0.7699 C   0  0  1  0  0  0  0  0  0  0  0  0
   -0.0285    2.1005    0.8428 C   0  0  1  0  0  0  0  0  0  0  0  0
   -3.3938   -1.0725   -0.5225 C   0  0  1  0  0  0  0  0  0  0  0  0
    2.0349   -0.1501   -0.4193 C   0  0  2  0  0  0  0  0  0  0  0  0
   -1.6658    0.8015   -0.6088 C   0  0  2  0  0  0  0  0  0  0  0  0
   -0.2129    1.1021   -0.1984 C   0  0  2  0  0  0  0  0  0  0  0  0
    3.3570   -3.8560    1.9131 H   0  0  0  0  0  0  0  0  0  0  0  0
    5.0485   -3.6396    1.2285 H   0  0  0  0  0  0  0  0  0  0  0  0
    4.7968   -3.6225    3.0504 H   0  0  0  0  0  0  0  0  0  0  0  0
   -4.8041   -4.1281    1.6211 H   0  0  0  0  0  0  0  0  0  0  0  0
   -4.5013   -3.5171    3.2895 H   0  0  0  0  0  0  0  0  0  0  0  0
   -3.1298   -4.1525    2.2130 H   0  0  0  0  0  0  0  0  0  0  0  0
    1.5837    5.5855    0.9244 H   0  0  0  0  0  0  0  0  0  0  0  0
    2.8745    5.1578   -0.2451 H   0  0  0  0  0  0  0  0  0  0  0  0
    1.4808    6.1275   -0.7648 H   0  0  0  0  0  0  0  0  0  0  0  0
   -4.1490   -3.4295   -2.2370 H   0  0  0  0  0  0  0  0  0  0  0  0
   -4.1593   -2.2967   -3.5984 H   0  0  0  0  0  0  0  0  0  0  0  0
   -5.2051   -1.9043   -2.2069 H   0  0  0  0  0  0  0  0  0  0  0  0
    2.8120   -0.4618   -3.6409 H   0  0  0  0  0  0  0  0  0  0  0  0
    1.3722   -0.9992   -2.7609 H   0  0  0  0  0  0  0  0  0  0  0  0
    1.4739    0.6966   -3.4704 H   0  0  0  0  0  0  0  0  0  0  0  0
   -4.1541    2.9047   -1.7677 H   0  0  0  0  0  0  0  0  0  0  0  0
   -3.9939    1.2090   -2.1225 H   0  0  0  0  0  0  0  0  0  0  0  0
   -4.7309    1.8198   -0.5302 H   0  0  0  0  0  0  0  0  0  0  0  0
    3.0818    2.5904    0.4009 H   0  0  0  0  0  0  0  0  0  0  0  0
    2.4099    2.1112    2.0488 H   0  0  0  0  0  0  0  0  0  0  0  0
    2.8325    3.7825    1.6577 H   0  0  0  0  0  0  0  0  0  0  0  0
   -1.2286    1.3977    2.5547 H   0  0  0  0  0  0  0  0  0  0  0  0
    0.4340    0.7603    2.5207 H   0  0  0  0  0  0  0  0  0  0  0  0
    0.1357    2.4356    2.9815 H   0  0  0  0  0  0  0  0  0  0  0  0
    3.1099   -1.5857    2.2010 H   0  0  0  0  0  0  0  0  0  0  0  0
    4.8263   -1.3947    2.7562 H   0  0  0  0  0  0  0  0  0  0  0  0
   -3.0308   -1.7625    2.2416 H   0  0  0  0  0  0  0  0  0  0  0  0
   -4.8099   -1.6020    1.8483 H   0  0  0  0  0  0  0  0  0  0  0  0
    1.5670    3.5779   -1.3265 H   0  0  0  0  0  0  0  0  0  0  0  0
    0.0094    4.3810   -0.7634 H   0  0  0  0  0  0  0  0  0  0  0  0
   -2.9195   -0.7029   -2.6107 H   0  0  0  0  0  0  0  0  0  0  0  0
   -2.1898   -2.2075   -1.9185 H   0  0  0  0  0  0  0  0  0  0  0  0
    2.5642    1.5378   -1.6531 H   0  0  0  0  0  0  0  0  0  0  0  0
    3.6809    0.1969   -1.6728 H   0  0  0  0  0  0  0  0  0  0  0  0
   -2.7921    2.1736    0.5030 H   0  0  0  0  0  0  0  0  0  0  0  0
   -2.0882    2.9180   -0.9399 H   0  0  0  0  0  0  0  0  0  0  0  0
    4.5821   -0.2348    0.7189 H   0  0  0  0  0  0  0  0  0  0  0  0
    5.6821   -1.6287    0.5075 H   0  0  0  0  0  0  0  0  0  0  0  0
    3.9546   -3.0416   -0.3851 H   0  0  0  0  0  0  0  0  0  0  0  0
    4.3087   -1.7173   -1.4762 H   0  0  0  0  0  0  0  0  0  0  0  0
   -2.5749   -2.8882    0.1869 H   0  0  0  0  0  0  0  0  0  0  0  0
   -4.3284   -3.0269   -0.2460 H   0  0  0  0  0  0  0  0  0  0  0  0
    2.0125   -2.0257    0.5560 H   0  0  0  0  0  0  0  0  0  0  0  0
    1.7918   -2.1999   -1.1804 H   0  0  0  0  0  0  0  0  0  0  0  0
   -2.3257   -0.2087    1.1581 H   0  0  0  0  0  0  0  0  0  0  0  0
   -1.4039   -1.2531   -0.0398 H   0  0  0  0  0  0  0  0  0  0  0  0
    0.3709   -0.8387    0.6095 H   0  0  0  0  0  0  0  0  0  0  0  0
    0.1712   -0.7113   -1.1478 H   0  0  0  0  0  0  0  0  0  0  0  0
    0.6601    3.9816    1.5642 H   0  0  0  0  0  0  0  0  0  0  0  0
   -1.0220    2.7345    0.7581 H   0  0  0  0  0  0  0  0  0  0  0  0
   -4.3216   -0.4791   -0.4730 H   0  0  0  0  0  0  0  0  0  0  0  0
    2.6341    0.2085    0.4262 H   0  0  0  0  0  0  0  0  0  0  0  0
   -1.5933    0.4893   -1.7235 H   0  0  0  0  0  0  0  0  0  0  0  0
    0.1361    1.6522   -1.1716 H   0  0  0  0  0  0  0  0  0  0  0  0
  1  9  1  0
  2 10  1  0
  3 11  1  0
  4 12  1  0
  5 13  1  0
  6 14  1  0
  7 21  1  0
  8 22  1  0
  9 15  1  0
 10 17  1  0
 11 21  1  0
 12 23  1  0
 13 24  1  0
 14 25  1  0
 15 16  1  0
 16 18  1  0
 17 23  1  0
 18 24  1  0
 19 23  1  0
 19 25  1  0
 20 24  1  0
 20 26  1  0
 21 22  1  0
 22 26  1  0
 25 26  1  0
  1 27  1  0
  1 28  1  0
  1 29  1  0
  2 30  1  0
  2 31  1  0
  2 32  1  0
  3 33  1  0
  3 34  1  0
  3 35  1  0
  4 36  1  0
  4 37  1  0
  4 38  1  0
  5 39  1  0
  5 40  1  0
  5 41  1  0
  6 42  1  0
  6 43  1  0
  6 44  1  0
  7 45  1  0
  7 46  1  0
  7 47  1  0
  8 48  1  0
  8 49  1  0
  8 50  1  0
  9 51  1  0
  9 52  1  0
 10 53  1  0
 10 54  1  0
 11 55  1  0
 11 56  1  0
 12 57  1  0
 12 58  1  0
 13 59  1  0
 13 60  1  0
 14 61  1  0
 14 62  1  0
 15 63  1  0
 15 64  1  0
 16 65  1  0
 16 66  1  0
 17 67  1  0
 17 68  1  0
 18 69  1  0
 18 70  1  0
 19 71  1  0
 19 72  1  0
 20 73  1  0
 20 74  1  0
 21 75  1  1
 22 76  1  6
 23 77  1  6
 24 78  1  1
 25 79  1  6
 26 80  1  6
M  END
