
     RDKit          3D

 14 13  0  0  0  0  0  0  0  0999 V2000
    1.9207   -0.0991   -0.1326 C   0  0  0  0  0  0  0  0  0  0  0  0
   -1.8942    0.0829    0.0931 C   0  0  0  0  0  0  0  0  0  0  0  0
    0.4957   -0.5487    0.0554 C   0  0  0  0  0  0  0  0  0  0  0  0
   -0.4891    0.5878   -0.1044 C   0  0  0  0  0  0  0  0  0  0  0  0
    2.0543    0.5971   -0.9774 H   0  0  0  0  0  0  0  0  0  0  0  0
    2.5480   -0.9989   -0.1930 H   0  0  0  0  0  0  0  0  0  0  0  0
    2.1888    0.4946    0.7869 H   0  0  0  0  0  0  0  0  0  0  0  0
   -2.6129    0.9266    0.0507 H   0  0  0  0  0  0  0  0  0  0  0  0
   -2.1488   -0.6278   -0.7050 H   0  0  0  0  0  0  0  0  0  0  0  0
   -2.0171   -0.4436    1.0620 H   0  0  0  0  0  0  0  0  0  0  0  0
    0.4193   -0.8986    1.1251 H   0  0  0  0  0  0  0  0  0  0  0  0
    0.2220   -1.4235   -0.5626 H   0  0  0  0  0  0  0  0  0  0  0  0
   -0.2849    1.3903    0.6102 H   0  0  0  0  0  0  0  0  0  0  0  0
   -0.4018    0.9609   -1.1383 H   0  0  0  0  0  0  0  0  0  0  0  0
  1  3  1  0
  2  4  1  0
  3  4  1  0
  1  5  1  0
  1  6  1  0
  1  7  1  0
  2  8  1  0
  2  9  1  0
  2 10  1  0
  3 11  1  0
  3 12  1  0
  4 13  1  0
  4 14  1  0
M  END
