
     RDKit          3D

 23 22  0  0  0  0  0  0  0  0999 V2000
    1.4898    0.5827    1.1693 C   0  0  0  0  0  0  0  0  0  0  0  0
    1.6105   -0.4309   -1.0990 C   0  0  0  0  0  0  0  0  0  0  0  0
   -1.3695   -0.1686    1.3041 C   0  0  0  0  0  0  0  0  0  0  0  0
   -1.2045   -1.0943   -0.9404 C   0  0  0  0  0  0  0  0  0  0  0  0
   -0.8211    1.3444   -0.5265 C   0  0  0  0  0  0  0  0  0  0  0  0
    0.8562   -0.3755    0.1827 C   0  0  0  0  0  0  0  0  0  0  0  0
   -0.6100   -0.0588   -0.0005 C   0  0  0  0  0  0  0  0  0  0  0  0
    1.7006    0.0847    2.1379 H   0  0  0  0  0  0  0  0  0  0  0  0
    2.5034    0.8489    0.7545 H   0  0  0  0  0  0  0  0  0  0  0  0
    0.9114    1.5174    1.2885 H   0  0  0  0  0  0  0  0  0  0  0  0
    1.6345   -1.4806   -1.5152 H   0  0  0  0  0  0  0  0  0  0  0  0
    1.1642    0.1844   -1.9101 H   0  0  0  0  0  0  0  0  0  0  0  0
    2.6623   -0.1026   -0.9344 H   0  0  0  0  0  0  0  0  0  0  0  0
   -0.8848   -0.8685    2.0126 H   0  0  0  0  0  0  0  0  0  0  0  0
   -2.4209   -0.4960    1.1108 H   0  0  0  0  0  0  0  0  0  0  0  0
   -1.4464    0.8344    1.7703 H   0  0  0  0  0  0  0  0  0  0  0  0
   -1.3863   -2.0329   -0.3714 H   0  0  0  0  0  0  0  0  0  0  0  0
   -0.4624   -1.3206   -1.7061 H   0  0  0  0  0  0  0  0  0  0  0  0
   -2.1386   -0.6681   -1.3719 H   0  0  0  0  0  0  0  0  0  0  0  0
    0.1176    1.9389   -0.5424 H   0  0  0  0  0  0  0  0  0  0  0  0
   -1.5543    1.9089    0.0860 H   0  0  0  0  0  0  0  0  0  0  0  0
   -1.2587    1.2540   -1.5404 H   0  0  0  0  0  0  0  0  0  0  0  0
    0.9072   -1.4012    0.6415 H   0  0  0  0  0  0  0  0  0  0  0  0
  1  6  1  0
  2  6  1  0
  3  7  1  0
  4  7  1  0
  5  7  1  0
  6  7  1  0
  1  8  1  0
  1  9  1  0
  1 10  1  0
  2 11  1  0
  2 12  1  0
  2 13  1  0
  3 14  1  0
  3 15  1  0
  3 16  1  0
  4 17  1  0
  4 18  1  0
  4 19  1  0
  5 20  1  0
  5 21  1  0
  5 22  1  0
  6 23  1  0
M  END
