
     RDKit          3D

 26 25  0  0  0  0  0  0  0  0999 V2000
    1.3538   -1.0792   -0.8759 C   0  0  0  0  0  0  0  0  0  0  0  0
    0.5843    1.1719   -1.3785 C   0  0  0  0  0  0  0  0  0  0  0  0
    1.6027    0.6974    0.7885 C   0  0  0  0  0  0  0  0  0  0  0  0
   -1.2378    1.1026    0.8686 C   0  0  0  0  0  0  0  0  0  0  0  0
   -0.6291   -1.2101    1.3829 C   0  0  0  0  0  0  0  0  0  0  0  0
   -1.6420   -0.6489   -0.7619 C   0  0  0  0  0  0  0  0  0  0  0  0
    0.6838    0.1393   -0.2735 C   0  0  0  0  0  0  0  0  0  0  0  0
   -0.6712   -0.1875    0.2988 C   0  0  0  0  0  0  0  0  0  0  0  0
    2.4046   -0.8094   -1.1063 H   0  0  0  0  0  0  0  0  0  0  0  0
    1.4115   -1.9282   -0.1566 H   0  0  0  0  0  0  0  0  0  0  0  0
    0.8766   -1.3841   -1.8177 H   0  0  0  0  0  0  0  0  0  0  0  0
    0.4898    2.2047   -0.9812 H   0  0  0  0  0  0  0  0  0  0  0  0
    1.5016    1.0750   -2.0303 H   0  0  0  0  0  0  0  0  0  0  0  0
   -0.2628    0.9218   -2.0808 H   0  0  0  0  0  0  0  0  0  0  0  0
    2.5960    0.8838    0.3313 H   0  0  0  0  0  0  0  0  0  0  0  0
    1.2552    1.6528    1.2102 H   0  0  0  0  0  0  0  0  0  0  0  0
    1.7559   -0.0398    1.6093 H   0  0  0  0  0  0  0  0  0  0  0  0
   -2.3162    0.8892    1.0790 H   0  0  0  0  0  0  0  0  0  0  0  0
   -0.6994    1.4518    1.7580 H   0  0  0  0  0  0  0  0  0  0  0  0
   -1.2431    1.8368    0.0324 H   0  0  0  0  0  0  0  0  0  0  0  0
   -1.6572   -1.2984    1.7997 H   0  0  0  0  0  0  0  0  0  0  0  0
   -0.3588   -2.2210    1.0109 H   0  0  0  0  0  0  0  0  0  0  0  0
    0.0096   -0.8868    2.2369 H   0  0  0  0  0  0  0  0  0  0  0  0
   -2.0294    0.1943   -1.3659 H   0  0  0  0  0  0  0  0  0  0  0  0
   -2.5343   -1.0520   -0.2025 H   0  0  0  0  0  0  0  0  0  0  0  0
   -1.2444   -1.4763   -1.3752 H   0  0  0  0  0  0  0  0  0  0  0  0
  1  7  1  0
  2  7  1  0
  3  7  1  0
  4  8  1  0
  5  8  1  0
  6  8  1  0
  7  8  1  0
  1  9  1  0
  1 10  1  0
  1 11  1  0
  2 12  1  0
  2 13  1  0
  2 14  1  0
  3 15  1  0
  3 16  1  0
  3 17  1  0
  4 18  1  0
  4 19  1  0
  4 20  1  0
  5 21  1  0
  5 22  1  0
  5 23  1  0
  6 24  1  0
  6 25  1  0
  6 26  1  0
M  END
