
     RDKit          3D

 26 25  0  0  0  0  0  0  0  0999 V2000
    2.3527    0.0331   -1.2871 C   0  0  0  0  0  0  0  0  0  0  0  0
   -2.4309    0.4606   -0.3943 C   0  0  0  0  0  0  0  0  0  0  0  0
    0.3635    1.0188    1.7729 C   0  0  0  0  0  0  0  0  0  0  0  0
   -0.4222   -1.4465   -1.0260 C   0  0  0  0  0  0  0  0  0  0  0  0
    1.9056    0.4831    0.0329 C   0  0  0  0  0  0  0  0  0  0  0  0
   -1.7644   -0.3884    0.6483 C   0  0  0  0  0  0  0  0  0  0  0  0
    0.4611    0.5065    0.3396 C   0  0  1  0  0  0  0  0  0  0  0  0
   -0.3294   -0.7124    0.2682 C   0  0  2  0  0  0  0  0  0  0  0  0
    3.3434    0.5266   -1.5231 H   0  0  0  0  0  0  0  0  0  0  0  0
    1.7119    0.2771   -2.1428 H   0  0  0  0  0  0  0  0  0  0  0  0
    2.6216   -1.0577   -1.2500 H   0  0  0  0  0  0  0  0  0  0  0  0
   -3.2894   -0.0636   -0.8802 H   0  0  0  0  0  0  0  0  0  0  0  0
   -1.7776    0.8042   -1.1953 H   0  0  0  0  0  0  0  0  0  0  0  0
   -2.8562    1.3694    0.0940 H   0  0  0  0  0  0  0  0  0  0  0  0
    1.2641    1.6162    2.0647 H   0  0  0  0  0  0  0  0  0  0  0  0
   -0.5584    1.6008    1.9424 H   0  0  0  0  0  0  0  0  0  0  0  0
    0.3908    0.1176    2.4235 H   0  0  0  0  0  0  0  0  0  0  0  0
    0.4529   -2.0837   -1.2574 H   0  0  0  0  0  0  0  0  0  0  0  0
   -0.7391   -0.8134   -1.8773 H   0  0  0  0  0  0  0  0  0  0  0  0
   -1.2649   -2.1777   -0.8998 H   0  0  0  0  0  0  0  0  0  0  0  0
    2.4564   -0.1396    0.8016 H   0  0  0  0  0  0  0  0  0  0  0  0
    2.3015    1.5164    0.2107 H   0  0  0  0  0  0  0  0  0  0  0  0
   -1.8453    0.0452    1.6649 H   0  0  0  0  0  0  0  0  0  0  0  0
   -2.3465   -1.3556    0.7067 H   0  0  0  0  0  0  0  0  0  0  0  0
   -0.0290    1.3056   -0.2731 H   0  0  0  0  0  0  0  0  0  0  0  0
    0.0277   -1.4425    1.0360 H   0  0  0  0  0  0  0  0  0  0  0  0
  1  5  1  0
  2  6  1  0
  3  7  1  0
  4  8  1  0
  5  7  1  0
  6  8  1  0
  7  8  1  0
  1  9  1  0
  1 10  1  0
  1 11  1  0
  2 12  1  0
  2 13  1  0
  2 14  1  0
  3 15  1  0
  3 16  1  0
  3 17  1  0
  4 18  1  0
  4 19  1  0
  4 20  1  0
  5 21  1  0
  5 22  1  0
  6 23  1  0
  6 24  1  0
  7 25  1  6
  8 26  1  1
M  END
