
     RDKit          3D

 26 25  0  0  0  0  0  0  0  0999 V2000
   -3.0059   -0.3733   -0.0463 C   0  0  0  0  0  0  0  0  0  0  0  0
    2.5202   -0.4287    0.7614 C   0  0  0  0  0  0  0  0  0  0  0  0
   -0.5084   -0.4218    1.3269 C   0  0  0  0  0  0  0  0  0  0  0  0
    0.7695    1.6048   -0.5456 C   0  0  0  0  0  0  0  0  0  0  0  0
   -1.7620    0.2556   -0.6314 C   0  0  0  0  0  0  0  0  0  0  0  0
    1.9751   -0.5283   -0.6134 C   0  0  0  0  0  0  0  0  0  0  0  0
   -0.5107   -0.5137   -0.1811 C   0  0  1  0  0  0  0  0  0  0  0  0
    0.6610    0.1283   -0.8434 C   0  0  1  0  0  0  0  0  0  0  0  0
   -2.8381   -1.4214    0.2843 H   0  0  0  0  0  0  0  0  0  0  0  0
   -3.3871    0.1814    0.8343 H   0  0  0  0  0  0  0  0  0  0  0  0
   -3.7985   -0.3200   -0.8289 H   0  0  0  0  0  0  0  0  0  0  0  0
    2.1456    0.4566    1.3170 H   0  0  0  0  0  0  0  0  0  0  0  0
    3.6210   -0.2997    0.6963 H   0  0  0  0  0  0  0  0  0  0  0  0
    2.3837   -1.3756    1.3485 H   0  0  0  0  0  0  0  0  0  0  0  0
    0.0365   -1.2545    1.8129 H   0  0  0  0  0  0  0  0  0  0  0  0
   -0.2208    0.5770    1.6917 H   0  0  0  0  0  0  0  0  0  0  0  0
   -1.5825   -0.5473    1.6590 H   0  0  0  0  0  0  0  0  0  0  0  0
   -0.0683    2.1083   -1.0684 H   0  0  0  0  0  0  0  0  0  0  0  0
    1.7332    1.9547   -1.0016 H   0  0  0  0  0  0  0  0  0  0  0  0
    0.8477    1.8474    0.5206 H   0  0  0  0  0  0  0  0  0  0  0  0
   -1.6985    1.2795   -0.1755 H   0  0  0  0  0  0  0  0  0  0  0  0
   -1.7963    0.3236   -1.7269 H   0  0  0  0  0  0  0  0  0  0  0  0
    2.7015   -0.0949   -1.3312 H   0  0  0  0  0  0  0  0  0  0  0  0
    1.9221   -1.6223   -0.8758 H   0  0  0  0  0  0  0  0  0  0  0  0
   -0.6161   -1.5885   -0.4246 H   0  0  0  0  0  0  0  0  0  0  0  0
    0.4761    0.0726   -1.9587 H   0  0  0  0  0  0  0  0  0  0  0  0
  1  5  1  0
  2  6  1  0
  3  7  1  0
  4  8  1  0
  5  7  1  0
  6  8  1  0
  7  8  1  0
  1  9  1  0
  1 10  1  0
  1 11  1  0
  2 12  1  0
  2 13  1  0
  2 14  1  0
  3 15  1  0
  3 16  1  0
  3 17  1  0
  4 18  1  0
  4 19  1  0
  4 20  1  0
  5 21  1  0
  5 22  1  0
  6 23  1  0
  6 24  1  0
  7 25  1  1
  8 26  1  6
M  END
