
     RDKit          3D

 29 28  0  0  0  0  0  0  0  0999 V2000
    2.5529   -0.2410    0.6740 C   0  0  0  0  0  0  0  0  0  0  0  0
   -0.9016   -2.0018   -1.0636 C   0  0  0  0  0  0  0  0  0  0  0  0
   -0.7192    2.4061   -0.4452 C   0  0  0  0  0  0  0  0  0  0  0  0
   -1.7898   -0.5724    1.3600 C   0  0  0  0  0  0  0  0  0  0  0  0
    1.5755    0.6681   -0.0245 C   0  0  0  0  0  0  0  0  0  0  0  0
    0.3378   -1.2164   -0.8475 C   0  0  0  0  0  0  0  0  0  0  0  0
   -0.6357    1.0167   -0.9722 C   0  0  0  0  0  0  0  0  0  0  0  0
   -0.4042   -0.0214    1.2571 C   0  0  0  0  0  0  0  0  0  0  0  0
    0.1848    0.0770   -0.0914 C   0  0  0  0  0  0  0  0  0  0  0  0
    3.4880    0.3677    0.8918 H   0  0  0  0  0  0  0  0  0  0  0  0
    2.1651   -0.5453    1.6514 H   0  0  0  0  0  0  0  0  0  0  0  0
    2.8680   -1.1094    0.0605 H   0  0  0  0  0  0  0  0  0  0  0  0
   -1.8295   -1.4294   -1.0562 H   0  0  0  0  0  0  0  0  0  0  0  0
   -0.8453   -2.4358   -2.1111 H   0  0  0  0  0  0  0  0  0  0  0  0
   -0.9444   -2.9405   -0.4378 H   0  0  0  0  0  0  0  0  0  0  0  0
   -1.2592    3.0090   -1.2188 H   0  0  0  0  0  0  0  0  0  0  0  0
   -1.1517    2.5251    0.5478 H   0  0  0  0  0  0  0  0  0  0  0  0
    0.3154    2.8512   -0.4440 H   0  0  0  0  0  0  0  0  0  0  0  0
   -2.5370   -0.0219    0.7251 H   0  0  0  0  0  0  0  0  0  0  0  0
   -2.1324   -0.2994    2.4092 H   0  0  0  0  0  0  0  0  0  0  0  0
   -1.8824   -1.6588    1.3267 H   0  0  0  0  0  0  0  0  0  0  0  0
    1.9655    0.7946   -1.0736 H   0  0  0  0  0  0  0  0  0  0  0  0
    1.5977    1.6231    0.5339 H   0  0  0  0  0  0  0  0  0  0  0  0
    0.8212   -1.0212   -1.8258 H   0  0  0  0  0  0  0  0  0  0  0  0
    1.0577   -1.9142   -0.3220 H   0  0  0  0  0  0  0  0  0  0  0  0
   -0.0558    1.0738   -1.9394 H   0  0  0  0  0  0  0  0  0  0  0  0
   -1.6112    0.5875   -1.2476 H   0  0  0  0  0  0  0  0  0  0  0  0
    0.2082   -0.5880    1.9910 H   0  0  0  0  0  0  0  0  0  0  0  0
   -0.4385    1.0168    1.6922 H   0  0  0  0  0  0  0  0  0  0  0  0
  1  5  1  0
  2  6  1  0
  3  7  1  0
  4  8  1  0
  5  9  1  0
  6  9  1  0
  7  9  1  0
  8  9  1  0
  1 10  1  0
  1 11  1  0
  1 12  1  0
  2 13  1  0
  2 14  1  0
  2 15  1  0
  3 16  1  0
  3 17  1  0
  3 18  1  0
  4 19  1  0
  4 20  1  0
  4 21  1  0
  5 22  1  0
  5 23  1  0
  6 24  1  0
  6 25  1  0
  7 26  1  0
  7 27  1  0
  8 28  1  0
  8 29  1  0
M  END
