
     RDKit          3D

 29 28  0  0  0  0  0  0  0  0999 V2000
    3.8410   -0.2905    0.1760 C   0  0  0  0  0  0  0  0  0  0  0  0
   -4.0659    0.2397    0.8589 C   0  0  0  0  0  0  0  0  0  0  0  0
    2.5726   -1.0475    0.4253 C   0  0  0  0  0  0  0  0  0  0  0  0
   -2.9981   -0.4624    0.0478 C   0  0  0  0  0  0  0  0  0  0  0  0
    1.5267   -0.2410    1.1313 C   0  0  0  0  0  0  0  0  0  0  0  0
   -1.7719    0.4322   -0.0663 C   0  0  0  0  0  0  0  0  0  0  0  0
    1.1138    0.9872    0.3738 C   0  0  0  0  0  0  0  0  0  0  0  0
   -0.6825   -0.2200   -0.8630 C   0  0  0  0  0  0  0  0  0  0  0  0
    0.5405    0.6596   -0.9850 C   0  0  0  0  0  0  0  0  0  0  0  0
    3.7001    0.7090   -0.2531 H   0  0  0  0  0  0  0  0  0  0  0  0
    4.4759   -0.2553    1.1072 H   0  0  0  0  0  0  0  0  0  0  0  0
    4.4426   -0.8701   -0.5610 H   0  0  0  0  0  0  0  0  0  0  0  0
   -3.8939    1.3345    0.8663 H   0  0  0  0  0  0  0  0  0  0  0  0
   -5.0481    0.0646    0.3602 H   0  0  0  0  0  0  0  0  0  0  0  0
   -4.1539   -0.1717    1.8805 H   0  0  0  0  0  0  0  0  0  0  0  0
    2.8186   -1.9158    1.0719 H   0  0  0  0  0  0  0  0  0  0  0  0
    2.1932   -1.4573   -0.5254 H   0  0  0  0  0  0  0  0  0  0  0  0
   -2.7455   -1.4114    0.5617 H   0  0  0  0  0  0  0  0  0  0  0  0
   -3.3534   -0.6325   -0.9859 H   0  0  0  0  0  0  0  0  0  0  0  0
    0.6333   -0.8780    1.2717 H   0  0  0  0  0  0  0  0  0  0  0  0
    1.8809    0.0173    2.1549 H   0  0  0  0  0  0  0  0  0  0  0  0
   -1.4253    0.6557    0.9686 H   0  0  0  0  0  0  0  0  0  0  0  0
   -2.0790    1.3781   -0.5520 H   0  0  0  0  0  0  0  0  0  0  0  0
    1.9613    1.6816    0.1907 H   0  0  0  0  0  0  0  0  0  0  0  0
    0.3986    1.5536    0.9998 H   0  0  0  0  0  0  0  0  0  0  0  0
   -1.0557   -0.4139   -1.8946 H   0  0  0  0  0  0  0  0  0  0  0  0
   -0.3679   -1.1897   -0.4661 H   0  0  0  0  0  0  0  0  0  0  0  0
    1.3300    0.1561   -1.5855 H   0  0  0  0  0  0  0  0  0  0  0  0
    0.2119    1.5882   -1.4947 H   0  0  0  0  0  0  0  0  0  0  0  0
  1  3  1  0
  2  4  1  0
  3  5  1  0
  4  6  1  0
  5  7  1  0
  6  8  1  0
  7  9  1  0
  8  9  1  0
  1 10  1  0
  1 11  1  0
  1 12  1  0
  2 13  1  0
  2 14  1  0
  2 15  1  0
  3 16  1  0
  3 17  1  0
  4 18  1  0
  4 19  1  0
  5 20  1  0
  5 21  1  0
  6 22  1  0
  6 23  1  0
  7 24  1  0
  7 25  1  0
  8 26  1  0
  8 27  1  0
  9 28  1  0
  9 29  1  0
M  END
