
     RDKit          3D

 29 28  0  0  0  0  0  0  0  0999 V2000
    3.2143    0.4637    1.0818 C   0  0  0  0  0  0  0  0  0  0  0  0
   -2.6754    1.5370   -0.8098 C   0  0  0  0  0  0  0  0  0  0  0  0
   -1.4576    0.0228    1.4820 C   0  0  0  0  0  0  0  0  0  0  0  0
    0.2079   -1.4547   -1.6270 C   0  0  0  0  0  0  0  0  0  0  0  0
    1.9816    0.3362    0.1659 C   0  0  0  0  0  0  0  0  0  0  0  0
   -1.2979    0.8959   -0.8799 C   0  0  0  0  0  0  0  0  0  0  0  0
    1.1912   -0.8436    0.6098 C   0  0  0  0  0  0  0  0  0  0  0  0
   -1.2169   -0.2875    0.0219 C   0  0  1  0  0  0  0  0  0  0  0  0
   -0.0369   -1.1639   -0.1548 C   0  0  1  0  0  0  0  0  0  0  0  0
    2.9722    1.0760    1.9675 H   0  0  0  0  0  0  0  0  0  0  0  0
    3.9864    1.0063    0.4969 H   0  0  0  0  0  0  0  0  0  0  0  0
    3.5539   -0.5338    1.4259 H   0  0  0  0  0  0  0  0  0  0  0  0
   -2.6257    2.4500   -1.4609 H   0  0  0  0  0  0  0  0  0  0  0  0
   -3.4620    0.8511   -1.1379 H   0  0  0  0  0  0  0  0  0  0  0  0
   -2.8387    1.8770    0.2425 H   0  0  0  0  0  0  0  0  0  0  0  0
   -1.0157   -0.7938    2.0877 H   0  0  0  0  0  0  0  0  0  0  0  0
   -2.5369    0.0885    1.7104 H   0  0  0  0  0  0  0  0  0  0  0  0
   -0.9965    0.9936    1.7058 H   0  0  0  0  0  0  0  0  0  0  0  0
    0.5794   -0.5889   -2.1752 H   0  0  0  0  0  0  0  0  0  0  0  0
   -0.7993   -1.6956   -2.0547 H   0  0  0  0  0  0  0  0  0  0  0  0
    0.8297   -2.3625   -1.7766 H   0  0  0  0  0  0  0  0  0  0  0  0
    1.4688    1.3167    0.3046 H   0  0  0  0  0  0  0  0  0  0  0  0
    2.3654    0.1714   -0.8421 H   0  0  0  0  0  0  0  0  0  0  0  0
   -1.1957    0.5188   -1.9225 H   0  0  0  0  0  0  0  0  0  0  0  0
   -0.5894    1.7007   -0.7052 H   0  0  0  0  0  0  0  0  0  0  0  0
    1.0053   -0.7324    1.7083 H   0  0  0  0  0  0  0  0  0  0  0  0
    1.9009   -1.7249    0.5713 H   0  0  0  0  0  0  0  0  0  0  0  0
   -2.1229   -0.9303   -0.2706 H   0  0  0  0  0  0  0  0  0  0  0  0
   -0.3896   -2.1937    0.2352 H   0  0  0  0  0  0  0  0  0  0  0  0
  1  5  1  0
  2  6  1  0
  3  8  1  0
  4  9  1  0
  5  7  1  0
  6  8  1  0
  7  9  1  0
  8  9  1  0
  1 10  1  0
  1 11  1  0
  1 12  1  0
  2 13  1  0
  2 14  1  0
  2 15  1  0
  3 16  1  0
  3 17  1  0
  3 18  1  0
  4 19  1  0
  4 20  1  0
  4 21  1  0
  5 22  1  0
  5 23  1  0
  6 24  1  0
  6 25  1  0
  7 26  1  0
  7 27  1  0
  8 28  1  6
  9 29  1  1
M  END
